data_RSM4131
_audit_creation_date              2024-05-06
_audit_creation_method            'Materials Studio'
_symmetry_space_group_name_H-M    'P1'
_symmetry_Int_Tables_number       1
_symmetry_cell_setting            triclinic
loop_
_symmetry_equiv_pos_as_xyz
  x,y,z
_cell_length_a                    19.0284
_cell_length_b                    19.0286
_cell_length_c                    37.0655
_cell_angle_alpha                 89.9996
_cell_angle_beta                  90.0000
_cell_angle_gamma                 89.9995
loop_
_atom_site_label
_atom_site_type_symbol
_atom_site_fract_x
_atom_site_fract_y
_atom_site_fract_z
_atom_site_U_iso_or_equiv
_atom_site_adp_type
_atom_site_occupancy
Al1    Al    0.87275   0.09512   0.07884   0.00000  Uiso   1.00
Al2    Al    0.12725   0.90489   0.07884   0.00000  Uiso   1.00
Al3    Al    0.40492   0.37273   0.57884   0.00000  Uiso   1.00
Al4    Al    0.59512   0.62726   0.57884   0.00000  Uiso   1.00
Al5    Al    0.62725   0.59510   0.42117   0.00000  Uiso   1.00
Al6    Al    0.37276   0.40489   0.42117   0.00000  Uiso   1.00
Al7    Al    0.09507   0.87278   0.92116   0.00000  Uiso   1.00
Al8    Al    0.90494   0.12724   0.92117   0.00000  Uiso   1.00
Al9    Al    0.83585   0.16415  -0.00000   0.00000  Uiso   1.00
Al10   Al    0.16416   0.83585   0.00000   0.00000  Uiso   1.00
Al11   Al    0.33584   0.33582   0.50000   0.00000  Uiso   1.00
Al12   Al    0.66418   0.66419   0.50000   0.00000  Uiso   1.00
Al13   Al   -0.00001  -0.00002   0.11345   0.00000  Uiso   1.00
Al14   Al    0.50001   0.50001   0.61342   0.00000  Uiso   1.00
Al15   Al    0.50000   0.50001   0.38655   0.00000  Uiso   1.00
Al16   Al    0.00000   0.00000   0.88652   0.00000  Uiso   1.00
H17    H     0.78910   0.36206   0.04276   0.00000  Uiso   1.00
H18    H     0.58064   0.48969   0.28332   0.00000  Uiso   1.00
H19    H     0.79800   0.23894   0.13961   0.00000  Uiso   1.00
H20    H     0.80091   0.34842   0.17660   0.00000  Uiso   1.00
H21    H     0.75393   0.60103   0.33039   0.00000  Uiso   1.00
H22    H     0.86863   0.53882   0.11577   0.00000  Uiso   1.00
H23    H     0.79198   0.47233   0.07942   0.00000  Uiso   1.00
H24    H     0.87244   0.84304   0.14459   0.00000  Uiso   1.00
H25    H     0.64050   0.49149   0.22344   0.00000  Uiso   1.00
H26    H     0.80491   0.73840   0.16594   0.00000  Uiso   1.00
H27    H     0.04091   0.70900   0.11009   0.00000  Uiso   1.00
H28    H     0.81475   0.60288   0.27072   0.00000  Uiso   1.00
H29    H     0.81038   0.65172   0.21185   0.00000  Uiso   1.00
H30    H     0.73513   0.44117   0.19489   0.00000  Uiso   1.00
H31    H     0.71274   0.01115   0.03080   0.00000  Uiso   1.00
H32    H     0.97371   0.60363   0.13078   0.00000  Uiso   1.00
H33    H     0.21090   0.63793   0.04276   0.00000  Uiso   1.00
H34    H     0.41936   0.51032   0.28332   0.00000  Uiso   1.00
H35    H     0.20200   0.76106   0.13961   0.00000  Uiso   1.00
H36    H     0.19909   0.65159   0.17660   0.00000  Uiso   1.00
H37    H     0.24607   0.39897   0.33039   0.00000  Uiso   1.00
H38    H     0.13136   0.46119   0.11577   0.00000  Uiso   1.00
H39    H     0.20803   0.52767   0.07943   0.00000  Uiso   1.00
H40    H     0.12754   0.15695   0.14459   0.00000  Uiso   1.00
H41    H     0.35950   0.50851   0.22344   0.00000  Uiso   1.00
H42    H     0.19509   0.26158   0.16593   0.00000  Uiso   1.00
H43    H     0.95908   0.29100   0.11009   0.00000  Uiso   1.00
H44    H     0.18525   0.39712   0.27072   0.00000  Uiso   1.00
H45    H     0.18962   0.34828   0.21185   0.00000  Uiso   1.00
H46    H     0.26486   0.55883   0.19489   0.00000  Uiso   1.00
H47    H     0.28729   0.98884   0.03082   0.00000  Uiso   1.00
H48    H     0.02628   0.39636   0.13078   0.00000  Uiso   1.00
H49    H     0.13793   0.28909   0.54276   0.00000  Uiso   1.00
H50    H     0.01032   0.08065   0.78334   0.00000  Uiso   1.00
H51    H     0.26106   0.29799   0.63961   0.00000  Uiso   1.00
H52    H     0.15159   0.30091   0.67660   0.00000  Uiso   1.00
H53    H     0.89897   0.25394   0.83040   0.00000  Uiso   1.00
H54    H     0.96120   0.36866   0.61578   0.00000  Uiso   1.00
H55    H     0.02767   0.29197   0.57943   0.00000  Uiso   1.00
H56    H     0.65695   0.37241   0.64459   0.00000  Uiso   1.00
H57    H     0.00851   0.14049   0.72345   0.00000  Uiso   1.00
H58    H     0.76160   0.30490   0.66594   0.00000  Uiso   1.00
H59    H     0.79096   0.54090   0.61009   0.00000  Uiso   1.00
H60    H     0.89712   0.31475   0.77072   0.00000  Uiso   1.00
H61    H     0.84828   0.31038   0.71185   0.00000  Uiso   1.00
H62    H     0.05883   0.23512   0.69489   0.00000  Uiso   1.00
H63    H     0.48886   0.21271   0.53081   0.00000  Uiso   1.00
H64    H     0.89634   0.47372   0.63078   0.00000  Uiso   1.00
H65    H     0.86208   0.71091   0.54276   0.00000  Uiso   1.00
H66    H     0.98969   0.91935   0.78332   0.00000  Uiso   1.00
H67    H     0.73895   0.70202   0.63961   0.00000  Uiso   1.00
H68    H     0.84841   0.69909   0.67660   0.00000  Uiso   1.00
H69    H     0.10103   0.74609   0.83040   0.00000  Uiso   1.00
H70    H     0.03881   0.63135   0.61578   0.00000  Uiso   1.00
H71    H     0.97234   0.70803   0.57943   0.00000  Uiso   1.00
H72    H     0.34305   0.62759   0.64459   0.00000  Uiso   1.00
H73    H     0.99149   0.85949   0.72343   0.00000  Uiso   1.00
H74    H     0.23840   0.69509   0.66594   0.00000  Uiso   1.00
H75    H     0.20905   0.45910   0.61009   0.00000  Uiso   1.00
H76    H     0.10289   0.68525   0.77073   0.00000  Uiso   1.00
H77    H     0.15173   0.68962   0.71185   0.00000  Uiso   1.00
H78    H     0.94118   0.76488   0.69489   0.00000  Uiso   1.00
H79    H     0.51114   0.78726   0.53080   0.00000  Uiso   1.00
H80    H     0.10367   0.52627   0.63077   0.00000  Uiso   1.00
H81    H     0.71090   0.86207   0.45724   0.00000  Uiso   1.00
H82    H     0.91936   0.98966   0.21668   0.00000  Uiso   1.00
H83    H     0.70200   0.73895   0.36039   0.00000  Uiso   1.00
H84    H     0.69909   0.84842   0.32340   0.00000  Uiso   1.00
H85    H     0.74609   0.10101   0.16961   0.00000  Uiso   1.00
H86    H     0.63135   0.03881   0.38422   0.00000  Uiso   1.00
H87    H     0.70804   0.97233   0.42057   0.00000  Uiso   1.00
H88    H     0.62758   0.34306   0.35541   0.00000  Uiso   1.00
H89    H     0.85951   0.99150   0.27657   0.00000  Uiso   1.00
H90    H     0.69510   0.23841   0.33406   0.00000  Uiso   1.00
H91    H     0.45910   0.20904   0.38991   0.00000  Uiso   1.00
H92    H     0.68527   0.10289   0.22928   0.00000  Uiso   1.00
H93    H     0.68963   0.15173   0.28815   0.00000  Uiso   1.00
H94    H     0.76488   0.94118   0.30512   0.00000  Uiso   1.00
H95    H     0.78727   0.51114   0.46919   0.00000  Uiso   1.00
H96    H     0.52628   0.10367   0.36923   0.00000  Uiso   1.00
H97    H     0.28910   0.13793   0.45724   0.00000  Uiso   1.00
H98    H     0.08065   0.01032   0.21668   0.00000  Uiso   1.00
H99    H     0.29800   0.26105   0.36039   0.00000  Uiso   1.00
H100   H     0.30091   0.15158   0.32340   0.00000  Uiso   1.00
H101   H     0.25392   0.89898   0.16961   0.00000  Uiso   1.00
H102   H     0.36866   0.96119   0.38422   0.00000  Uiso   1.00
H103   H     0.29197   0.02767   0.42057   0.00000  Uiso   1.00
H104   H     0.37243   0.65696   0.35541   0.00000  Uiso   1.00
H105   H     0.14051   0.00851   0.27657   0.00000  Uiso   1.00
H106   H     0.30491   0.76160   0.33406   0.00000  Uiso   1.00
H107   H     0.54091   0.79098   0.38991   0.00000  Uiso   1.00
H108   H     0.31475   0.89712   0.22928   0.00000  Uiso   1.00
H109   H     0.31038   0.84827   0.28815   0.00000  Uiso   1.00
H110   H     0.23512   0.05882   0.30512   0.00000  Uiso   1.00
H111   H     0.21274   0.48886   0.46920   0.00000  Uiso   1.00
H112   H     0.47372   0.89635   0.36922   0.00000  Uiso   1.00
H113   H     0.36205   0.78910   0.95724   0.00000  Uiso   1.00
H114   H     0.48970   0.58065   0.71667   0.00000  Uiso   1.00
H115   H     0.23894   0.79800   0.86039   0.00000  Uiso   1.00
H116   H     0.34841   0.80090   0.82340   0.00000  Uiso   1.00
H117   H     0.60104   0.75394   0.66962   0.00000  Uiso   1.00
H118   H     0.53882   0.86865   0.88423   0.00000  Uiso   1.00
H119   H     0.47231   0.79197   0.92058   0.00000  Uiso   1.00
H120   H     0.84305   0.87246   0.85541   0.00000  Uiso   1.00
H121   H     0.49149   0.64050   0.77655   0.00000  Uiso   1.00
H122   H     0.73842   0.80493   0.83407   0.00000  Uiso   1.00
H123   H     0.70901   0.04092   0.88992   0.00000  Uiso   1.00
H124   H     0.60289   0.81476   0.72929   0.00000  Uiso   1.00
H125   H     0.65173   0.81039   0.78816   0.00000  Uiso   1.00
H126   H     0.44118   0.73514   0.80512   0.00000  Uiso   1.00
H127   H     0.01116   0.71271   0.96917   0.00000  Uiso   1.00
H128   H     0.60364   0.97373   0.86923   0.00000  Uiso   1.00
H129   H     0.63797   0.21090   0.95725   0.00000  Uiso   1.00
H130   H     0.51029   0.41936   0.71666   0.00000  Uiso   1.00
H131   H     0.76108   0.20202   0.86039   0.00000  Uiso   1.00
H132   H     0.65160   0.19910   0.82340   0.00000  Uiso   1.00
H133   H     0.39896   0.24605   0.66962   0.00000  Uiso   1.00
H134   H     0.46119   0.13136   0.88423   0.00000  Uiso   1.00
H135   H     0.52770   0.20803   0.92058   0.00000  Uiso   1.00
H136   H     0.15696   0.12756   0.85541   0.00000  Uiso   1.00
H137   H     0.50851   0.35951   0.77655   0.00000  Uiso   1.00
H138   H     0.26160   0.19509   0.83407   0.00000  Uiso   1.00
H139   H     0.29100   0.95909   0.88991   0.00000  Uiso   1.00
H140   H     0.39712   0.18524   0.72929   0.00000  Uiso   1.00
H141   H     0.34828   0.18962   0.78816   0.00000  Uiso   1.00
H142   H     0.55884   0.26487   0.80512   0.00000  Uiso   1.00
H143   H     0.98887   0.28727   0.96920   0.00000  Uiso   1.00
H144   H     0.39636   0.02629   0.86922   0.00000  Uiso   1.00
C145   C     0.96041   0.78207   0.12600   0.00000  Uiso   1.00
C146   C    -0.00005   0.84576   0.11389   0.00000  Uiso   1.00
C147   C     0.79279   0.29421   0.08915   0.00000  Uiso   1.00
C148   C     0.62677   0.54347   0.34595   0.00000  Uiso   1.00
C149   C     0.79107   0.36007   0.07207   0.00000  Uiso   1.00
C150   C     0.66373   0.54513   0.31030   0.00000  Uiso   1.00
C151   C     0.79874   0.22819   0.06766   0.00000  Uiso   1.00
C152   C     0.63189   0.51421   0.28006   0.00000  Uiso   1.00
C153   C     0.79531   0.29042   0.12696   0.00000  Uiso   1.00
C154   C     0.79698   0.35164   0.14738   0.00000  Uiso   1.00
C155   C     0.72951   0.57781   0.30668   0.00000  Uiso   1.00
C156   C     0.84055   0.54082   0.14133   0.00000  Uiso   1.00
C157   C     0.79351   0.42130   0.09265   0.00000  Uiso   1.00
C158   C     0.89401   0.79034   0.14212   0.00000  Uiso   1.00
C159   C     0.66579   0.51508   0.24681   0.00000  Uiso   1.00
C160   C     0.85688   0.73197   0.15414   0.00000  Uiso   1.00
C161   C     0.73191   0.54748   0.24281   0.00000  Uiso   1.00
C162   C     0.84407   0.60215   0.16240   0.00000  Uiso   1.00
C163   C     0.79689   0.41806   0.13058   0.00000  Uiso   1.00
C164   C     0.80101   0.48260   0.15262   0.00000  Uiso   1.00
C165   C     0.98900   0.71444   0.12209   0.00000  Uiso   1.00
C166   C     0.76301   0.57903   0.27325   0.00000  Uiso   1.00
C167   C     0.80770   0.60437   0.19545   0.00000  Uiso   1.00
C168   C     0.76549   0.48625   0.18581   0.00000  Uiso   1.00
C169   C     0.75645   0.04863   0.03442   0.00000  Uiso   1.00
C170   C     0.76859   0.54653   0.20762   0.00000  Uiso   1.00
C171   C     0.88464   0.66371   0.14995   0.00000  Uiso   1.00
C172   C     0.95114   0.65591   0.13360   0.00000  Uiso   1.00
C173   C     0.03958   0.21791   0.12600   0.00000  Uiso   1.00
C174   C     0.00004   0.15421   0.11390   0.00000  Uiso   1.00
C175   C     0.20720   0.70580   0.08914   0.00000  Uiso   1.00
C176   C     0.37322   0.45655   0.34596   0.00000  Uiso   1.00
C177   C     0.20893   0.63993   0.07207   0.00000  Uiso   1.00
C178   C     0.33627   0.45489   0.31031   0.00000  Uiso   1.00
C179   C     0.20125   0.77182   0.06766   0.00000  Uiso   1.00
C180   C     0.36812   0.48580   0.28007   0.00000  Uiso   1.00
C181   C     0.20469   0.70958   0.12695   0.00000  Uiso   1.00
C182   C     0.20301   0.64836   0.14738   0.00000  Uiso   1.00
C183   C     0.27049   0.42220   0.30668   0.00000  Uiso   1.00
C184   C     0.15944   0.45918   0.14133   0.00000  Uiso   1.00
C185   C     0.20649   0.57871   0.09264   0.00000  Uiso   1.00
C186   C     0.10598   0.20965   0.14212   0.00000  Uiso   1.00
C187   C     0.33421   0.48492   0.24681   0.00000  Uiso   1.00
C188   C     0.14311   0.26802   0.15413   0.00000  Uiso   1.00
C189   C     0.26809   0.45251   0.24281   0.00000  Uiso   1.00
C190   C     0.15593   0.39785   0.16240   0.00000  Uiso   1.00
C191   C     0.20311   0.58194   0.13058   0.00000  Uiso   1.00
C192   C     0.19899   0.51740   0.15262   0.00000  Uiso   1.00
C193   C     0.01098   0.28554   0.12209   0.00000  Uiso   1.00
C194   C     0.23699   0.42097   0.27325   0.00000  Uiso   1.00
C195   C     0.19230   0.39563   0.19545   0.00000  Uiso   1.00
C196   C     0.23450   0.51375   0.18581   0.00000  Uiso   1.00
C197   C     0.24356   0.95137   0.03443   0.00000  Uiso   1.00
C198   C     0.23141   0.45347   0.20762   0.00000  Uiso   1.00
C199   C     0.11535   0.33628   0.14995   0.00000  Uiso   1.00
C200   C     0.04885   0.34408   0.13360   0.00000  Uiso   1.00
C201   C     0.71790   0.46040   0.62600   0.00000  Uiso   1.00
C202   C     0.65420   0.49993   0.61389   0.00000  Uiso   1.00
C203   C     0.20579   0.29280   0.58914   0.00000  Uiso   1.00
C204   C     0.95656   0.12679   0.84596   0.00000  Uiso   1.00
C205   C     0.13993   0.29107   0.57207   0.00000  Uiso   1.00
C206   C     0.95489   0.16375   0.81031   0.00000  Uiso   1.00
C207   C     0.27182   0.29875   0.56766   0.00000  Uiso   1.00
C208   C     0.98579   0.13189   0.78007   0.00000  Uiso   1.00
C209   C     0.20958   0.29530   0.62695   0.00000  Uiso   1.00
C210   C     0.14836   0.29698   0.64738   0.00000  Uiso   1.00
C211   C     0.92220   0.22952   0.80668   0.00000  Uiso   1.00
C212   C     0.95918   0.34056   0.64133   0.00000  Uiso   1.00
C213   C     0.07870   0.29350   0.59265   0.00000  Uiso   1.00
C214   C     0.70965   0.39399   0.64212   0.00000  Uiso   1.00
C215   C     0.98492   0.16579   0.74682   0.00000  Uiso   1.00
C216   C     0.76803   0.35687   0.65414   0.00000  Uiso   1.00
C217   C     0.95252   0.23191   0.74281   0.00000  Uiso   1.00
C218   C     0.89785   0.34407   0.66241   0.00000  Uiso   1.00
C219   C     0.08194   0.29689   0.63058   0.00000  Uiso   1.00
C220   C     0.01740   0.30102   0.65263   0.00000  Uiso   1.00
C221   C     0.78552   0.48899   0.62209   0.00000  Uiso   1.00
C222   C     0.92097   0.26301   0.77326   0.00000  Uiso   1.00
C223   C     0.89563   0.30770   0.69545   0.00000  Uiso   1.00
C224   C     0.01375   0.26549   0.68581   0.00000  Uiso   1.00
C225   C     0.45138   0.25643   0.53442   0.00000  Uiso   1.00
C226   C     0.95347   0.26859   0.70763   0.00000  Uiso   1.00
C227   C     0.83628   0.38464   0.64995   0.00000  Uiso   1.00
C228   C     0.84407   0.45114   0.63360   0.00000  Uiso   1.00
C229   C     0.28211   0.53961   0.62600   0.00000  Uiso   1.00
C230   C     0.34581   0.50008   0.61388   0.00000  Uiso   1.00
C231   C     0.79422   0.70721   0.58914   0.00000  Uiso   1.00
C232   C     0.04343   0.87325   0.84593   0.00000  Uiso   1.00
C233   C     0.86009   0.70894   0.57207   0.00000  Uiso   1.00
C234   C     0.04512   0.83626   0.81029   0.00000  Uiso   1.00
C235   C     0.72821   0.70126   0.56766   0.00000  Uiso   1.00
C236   C     0.01421   0.86811   0.78005   0.00000  Uiso   1.00
C237   C     0.79043   0.70470   0.62695   0.00000  Uiso   1.00
C238   C     0.85165   0.70302   0.64738   0.00000  Uiso   1.00
C239   C     0.07780   0.77049   0.80668   0.00000  Uiso   1.00
C240   C     0.04082   0.65944   0.64133   0.00000  Uiso   1.00
C241   C     0.92131   0.70650   0.59265   0.00000  Uiso   1.00
C242   C     0.29036   0.60601   0.64212   0.00000  Uiso   1.00
C243   C     0.01509   0.83420   0.74680   0.00000  Uiso   1.00
C244   C     0.23198   0.64312   0.65414   0.00000  Uiso   1.00
C245   C     0.04749   0.76808   0.74281   0.00000  Uiso   1.00
C246   C     0.10215   0.65592   0.66240   0.00000  Uiso   1.00
C247   C     0.91807   0.70311   0.63058   0.00000  Uiso   1.00
C248   C     0.98260   0.69898   0.65263   0.00000  Uiso   1.00
C249   C     0.21449   0.51101   0.62208   0.00000  Uiso   1.00
C250   C     0.07904   0.73699   0.77326   0.00000  Uiso   1.00
C251   C     0.10437   0.69229   0.69545   0.00000  Uiso   1.00
C252   C     0.98625   0.73451   0.68581   0.00000  Uiso   1.00
C253   C     0.54863   0.74356   0.53442   0.00000  Uiso   1.00
C254   C     0.04653   0.73140   0.70763   0.00000  Uiso   1.00
C255   C     0.16372   0.61535   0.64995   0.00000  Uiso   1.00
C256   C     0.15594   0.54886   0.63359   0.00000  Uiso   1.00
C257   C     0.53960   0.28211   0.37400   0.00000  Uiso   1.00
C258   C     0.50007   0.34580   0.38611   0.00000  Uiso   1.00
C259   C     0.70720   0.79421   0.41086   0.00000  Uiso   1.00
C260   C     0.87320   0.04342   0.15403   0.00000  Uiso   1.00
C261   C     0.70893   0.86007   0.42793   0.00000  Uiso   1.00
C262   C     0.83627   0.04508   0.18969   0.00000  Uiso   1.00
C263   C     0.70125   0.72818   0.43234   0.00000  Uiso   1.00
C264   C     0.86812   0.01419   0.21994   0.00000  Uiso   1.00
C265   C     0.70469   0.79043   0.37305   0.00000  Uiso   1.00
C266   C     0.70302   0.85165   0.35262   0.00000  Uiso   1.00
C267   C     0.77050   0.07779   0.19332   0.00000  Uiso   1.00
C268   C     0.65944   0.04082   0.35867   0.00000  Uiso   1.00
C269   C     0.70650   0.92130   0.40735   0.00000  Uiso   1.00
C270   C     0.60601   0.29036   0.35788   0.00000  Uiso   1.00
C271   C     0.83422   0.01509   0.25319   0.00000  Uiso   1.00
C272   C     0.64313   0.23198   0.34586   0.00000  Uiso   1.00
C273   C     0.76810   0.04749   0.25719   0.00000  Uiso   1.00
C274   C     0.65593   0.10216   0.33760   0.00000  Uiso   1.00
C275   C     0.70311   0.91807   0.36942   0.00000  Uiso   1.00
C276   C     0.69898   0.98261   0.34737   0.00000  Uiso   1.00
C277   C     0.51101   0.21448   0.37792   0.00000  Uiso   1.00
C278   C     0.73701   0.07903   0.22675   0.00000  Uiso   1.00
C279   C     0.69230   0.10438   0.30455   0.00000  Uiso   1.00
C280   C     0.73451   0.98626   0.31419   0.00000  Uiso   1.00
C281   C     0.74356   0.54863   0.46557   0.00000  Uiso   1.00
C282   C     0.73141   0.04654   0.29238   0.00000  Uiso   1.00
C283   C     0.61536   0.16373   0.35005   0.00000  Uiso   1.00
C284   C     0.54886   0.15594   0.36640   0.00000  Uiso   1.00
C285   C     0.46040   0.71791   0.37400   0.00000  Uiso   1.00
C286   C     0.49994   0.65422   0.38612   0.00000  Uiso   1.00
C287   C     0.29280   0.20579   0.41086   0.00000  Uiso   1.00
C288   C     0.12677   0.95655   0.15405   0.00000  Uiso   1.00
C289   C     0.29107   0.13993   0.42793   0.00000  Uiso   1.00
C290   C     0.16373   0.95489   0.18970   0.00000  Uiso   1.00
C291   C     0.29875   0.27181   0.43234   0.00000  Uiso   1.00
C292   C     0.13189   0.98579   0.21994   0.00000  Uiso   1.00
C293   C     0.29531   0.20957   0.37305   0.00000  Uiso   1.00
C294   C     0.29699   0.14836   0.35262   0.00000  Uiso   1.00
C295   C     0.22951   0.92220   0.19332   0.00000  Uiso   1.00
C296   C     0.34056   0.95918   0.35867   0.00000  Uiso   1.00
C297   C     0.29350   0.07870   0.40735   0.00000  Uiso   1.00
C298   C     0.39400   0.70965   0.35788   0.00000  Uiso   1.00
C299   C     0.16579   0.98492   0.25320   0.00000  Uiso   1.00
C300   C     0.35688   0.76803   0.34586   0.00000  Uiso   1.00
C301   C     0.23192   0.95251   0.25719   0.00000  Uiso   1.00
C302   C     0.34407   0.89785   0.33760   0.00000  Uiso   1.00
C303   C     0.29689   0.08194   0.36942   0.00000  Uiso   1.00
C304   C     0.30102   0.01740   0.34737   0.00000  Uiso   1.00
C305   C     0.48900   0.78554   0.37792   0.00000  Uiso   1.00
C306   C     0.26301   0.92097   0.22675   0.00000  Uiso   1.00
C307   C     0.30771   0.89563   0.30455   0.00000  Uiso   1.00
C308   C     0.26549   0.01374   0.31419   0.00000  Uiso   1.00
C309   C     0.25645   0.45137   0.46558   0.00000  Uiso   1.00
C310   C     0.26860   0.95347   0.29238   0.00000  Uiso   1.00
C311   C     0.38465   0.83628   0.35005   0.00000  Uiso   1.00
C312   C     0.45114   0.84408   0.36641   0.00000  Uiso   1.00
C313   C     0.78208   0.96043   0.87401   0.00000  Uiso   1.00
C314   C     0.84578  -0.00006   0.88613   0.00000  Uiso   1.00
C315   C     0.29418   0.79281   0.91086   0.00000  Uiso   1.00
C316   C     0.54352   0.62679   0.65402   0.00000  Uiso   1.00
C317   C     0.36005   0.79108   0.92793   0.00000  Uiso   1.00
C318   C     0.54516   0.66373   0.68969   0.00000  Uiso   1.00
C319   C     0.22815   0.79877   0.93235   0.00000  Uiso   1.00
C320   C     0.51423   0.63189   0.71993   0.00000  Uiso   1.00
C321   C     0.29041   0.79531   0.87305   0.00000  Uiso   1.00
C322   C     0.35164   0.79699   0.85263   0.00000  Uiso   1.00
C323   C     0.57781   0.72952   0.69333   0.00000  Uiso   1.00
C324   C     0.54082   0.84056   0.85868   0.00000  Uiso   1.00
C325   C     0.42128   0.79351   0.90736   0.00000  Uiso   1.00
C326   C     0.79035   0.89403   0.85789   0.00000  Uiso   1.00
C327   C     0.51509   0.66579   0.75319   0.00000  Uiso   1.00
C328   C     0.73198   0.85690   0.84587   0.00000  Uiso   1.00
C329   C     0.54749   0.73191   0.75720   0.00000  Uiso   1.00
C330   C     0.60216   0.84408   0.83760   0.00000  Uiso   1.00
C331   C     0.41806   0.79690   0.86943   0.00000  Uiso   1.00
C332   C     0.48260   0.80102   0.84738   0.00000  Uiso   1.00
C333   C     0.71445   0.98902   0.87792   0.00000  Uiso   1.00
C334   C     0.57903   0.76302   0.72675   0.00000  Uiso   1.00
C335   C     0.60438   0.80771   0.80456   0.00000  Uiso   1.00
C336   C     0.48625   0.76550   0.81420   0.00000  Uiso   1.00
C337   C     0.04864   0.75643   0.96557   0.00000  Uiso   1.00
C338   C     0.54654   0.76859   0.79238   0.00000  Uiso   1.00
C339   C     0.66372   0.88466   0.85006   0.00000  Uiso   1.00
C340   C     0.65592   0.95116   0.86641   0.00000  Uiso   1.00
C341   C     0.21792   0.03959   0.87401   0.00000  Uiso   1.00
C342   C     0.15422   0.00006   0.88612   0.00000  Uiso   1.00
C343   C     0.70582   0.20720   0.91086   0.00000  Uiso   1.00
C344   C     0.45648   0.37322   0.65402   0.00000  Uiso   1.00
C345   C     0.63996   0.20893   0.92793   0.00000  Uiso   1.00
C346   C     0.45485   0.33627   0.68968   0.00000  Uiso   1.00
C347   C     0.77185   0.20123   0.93235   0.00000  Uiso   1.00
C348   C     0.48577   0.36812   0.71992   0.00000  Uiso   1.00
C349   C     0.70960   0.20469   0.87305   0.00000  Uiso   1.00
C350   C     0.64838   0.20302   0.85263   0.00000  Uiso   1.00
C351   C     0.42219   0.27048   0.69332   0.00000  Uiso   1.00
C352   C     0.45919   0.15945   0.85868   0.00000  Uiso   1.00
C353   C     0.57873   0.20650   0.90736   0.00000  Uiso   1.00
C354   C     0.20966   0.10599   0.85788   0.00000  Uiso   1.00
C355   C     0.48491   0.33422   0.75318   0.00000  Uiso   1.00
C356   C     0.26803   0.14312   0.84587   0.00000  Uiso   1.00
C357   C     0.45252   0.26809   0.75720   0.00000  Uiso   1.00
C358   C     0.39786   0.15593   0.83760   0.00000  Uiso   1.00
C359   C     0.58196   0.20311   0.86943   0.00000  Uiso   1.00
C360   C     0.51741   0.19899   0.84738   0.00000  Uiso   1.00
C361   C     0.28555   0.01100   0.87792   0.00000  Uiso   1.00
C362   C     0.42097   0.23698   0.72675   0.00000  Uiso   1.00
C363   C     0.39564   0.19230   0.80456   0.00000  Uiso   1.00
C364   C     0.51376   0.23451   0.81420   0.00000  Uiso   1.00
C365   C     0.95138   0.24357   0.96558   0.00000  Uiso   1.00
C366   C     0.45347   0.23142   0.79238   0.00000  Uiso   1.00
C367   C     0.33629   0.11536   0.85005   0.00000  Uiso   1.00
C368   C     0.34409   0.04886   0.86641   0.00000  Uiso   1.00
O369   O     0.80539   0.17125   0.08554   0.00000  Uiso   1.00
O370   O     0.06197   0.83684   0.10154   0.00000  Uiso   1.00
O371   O     0.79520   0.03757   0.06164   0.00000  Uiso   1.00
O372   O     0.93094   0.02078   0.08199   0.00000  Uiso   1.00
O373   O     0.89292   0.13044   0.03484   0.00000  Uiso   1.00
O374   O     0.65985   0.56937   0.37272   0.00000  Uiso   1.00
O375   O     0.56535   0.51730   0.34607   0.00000  Uiso   1.00
O376   O     0.79832   0.23327   0.03345   0.00000  Uiso   1.00
O377   O     0.96835   0.90410   0.11819   0.00000  Uiso   1.00
O378   O     0.76032   0.09715   0.01107   0.00000  Uiso   1.00
O379   O     0.19460   0.82876   0.08554   0.00000  Uiso   1.00
O380   O     0.93803   0.16315   0.10155   0.00000  Uiso   1.00
O381   O     0.20481   0.96243   0.06164   0.00000  Uiso   1.00
O382   O     0.06907   0.97924   0.08200   0.00000  Uiso   1.00
O383   O     0.10710   0.86968   0.03482   0.00000  Uiso   1.00
O384   O     0.34014   0.43063   0.37272   0.00000  Uiso   1.00
O385   O     0.43463   0.48272   0.34610   0.00000  Uiso   1.00
O386   O     0.20167   0.76673   0.03344   0.00000  Uiso   1.00
O387   O     0.03163   0.09586   0.11821   0.00000  Uiso   1.00
O388   O     0.23969   0.90283   0.01107   0.00000  Uiso   1.00
O389   O     0.32875   0.30541   0.58553   0.00000  Uiso   1.00
O390   O     0.66314   0.56195   0.60155   0.00000  Uiso   1.00
O391   O     0.46246   0.29519   0.56163   0.00000  Uiso   1.00
O392   O     0.47924   0.43092   0.58201   0.00000  Uiso   1.00
O393   O     0.36991   0.39287   0.53479   0.00000  Uiso   1.00
O394   O     0.93064   0.15986   0.87272   0.00000  Uiso   1.00
O395   O     0.98272   0.06538   0.84609   0.00000  Uiso   1.00
O396   O     0.26674   0.29833   0.53344   0.00000  Uiso   1.00
O397   O     0.59586   0.46832   0.61819   0.00000  Uiso   1.00
O398   O     0.40284   0.26028   0.51108   0.00000  Uiso   1.00
O399   O     0.67127   0.69460   0.58554   0.00000  Uiso   1.00
O400   O     0.33687   0.43807   0.60153   0.00000  Uiso   1.00
O401   O     0.53757   0.70481   0.56163   0.00000  Uiso   1.00
O402   O     0.52078   0.56908   0.58200   0.00000  Uiso   1.00
O403   O     0.63034   0.60711   0.53482   0.00000  Uiso   1.00
O404   O     0.06933   0.84020   0.87270   0.00000  Uiso   1.00
O405   O     0.01730   0.93468   0.84600   0.00000  Uiso   1.00
O406   O     0.73328   0.70168   0.53344   0.00000  Uiso   1.00
O407   O     0.40415   0.53168   0.61819   0.00000  Uiso   1.00
O408   O     0.59717   0.73971   0.51108   0.00000  Uiso   1.00
O409   O     0.69459   0.67124   0.41447   0.00000  Uiso   1.00
O410   O     0.43806   0.33685   0.39847   0.00000  Uiso   1.00
O411   O     0.70480   0.53755   0.43837   0.00000  Uiso   1.00
O412   O     0.56908   0.52076   0.41798   0.00000  Uiso   1.00
O413   O     0.60712   0.63009   0.46523   0.00000  Uiso   1.00
O414   O     0.84011   0.06937   0.12729   0.00000  Uiso   1.00
O415   O     0.93461   0.01727   0.15387   0.00000  Uiso   1.00
O416   O     0.70167   0.73326   0.46656   0.00000  Uiso   1.00
O417   O     0.53165   0.40415   0.38180   0.00000  Uiso   1.00
O418   O     0.73972   0.59717   0.48892   0.00000  Uiso   1.00
O419   O     0.30540   0.32875   0.41447   0.00000  Uiso   1.00
O420   O     0.56194   0.66316   0.39848   0.00000  Uiso   1.00
O421   O     0.29520   0.46244   0.43837   0.00000  Uiso   1.00
O422   O     0.43094   0.47924   0.41799   0.00000  Uiso   1.00
O423   O     0.39289   0.36975   0.46520   0.00000  Uiso   1.00
O424   O     0.15985   0.93064   0.12729   0.00000  Uiso   1.00
O425   O     0.06535   0.98271   0.15393   0.00000  Uiso   1.00
O426   O     0.29833   0.26673   0.46656   0.00000  Uiso   1.00
O427   O     0.46835   0.59588   0.38181   0.00000  Uiso   1.00
O428   O     0.26030   0.40283   0.48893   0.00000  Uiso   1.00
O429   O     0.17120   0.80543   0.91447   0.00000  Uiso   1.00
O430   O     0.83685   0.06194   0.89851   0.00000  Uiso   1.00
O431   O     0.03754   0.79519   0.93837   0.00000  Uiso   1.00
O432   O     0.02073   0.93095   0.91796   0.00000  Uiso   1.00
O433   O     0.12989   0.89287   0.96526   0.00000  Uiso   1.00
O434   O     0.56941   0.65991   0.62728   0.00000  Uiso   1.00
O435   O     0.51735   0.56538   0.65385   0.00000  Uiso   1.00
O436   O     0.23324   0.79835   0.96657   0.00000  Uiso   1.00
O437   O     0.90412   0.96836   0.88180   0.00000  Uiso   1.00
O438   O     0.09718   0.76028   0.98892   0.00000  Uiso   1.00
O439   O     0.82879   0.19458   0.91448   0.00000  Uiso   1.00
O440   O     0.16316   0.93807   0.89851   0.00000  Uiso   1.00
O441   O     0.96248   0.20481   0.93837   0.00000  Uiso   1.00
O442   O     0.97927   0.06906   0.91797   0.00000  Uiso   1.00
O443   O     0.87018   0.10714   0.96526   0.00000  Uiso   1.00
O444   O     0.43060   0.34009   0.62727   0.00000  Uiso   1.00
O445   O     0.48265   0.43462   0.65384   0.00000  Uiso   1.00
O446   O     0.76677   0.20165   0.96657   0.00000  Uiso   1.00
O447   O     0.09588   0.03163   0.88179   0.00000  Uiso   1.00
O448   O     0.90284   0.23973   0.98892   0.00000  Uiso   1.00
H449   H     0.37159   0.44233   0.52711   0.00000  Uiso   1.00
H450   H     0.43918   0.37371   0.47355   0.00000  Uiso   1.00
H451   H     0.42982   0.51366   0.43648   0.00000  Uiso   1.00
H452   H     0.55244   0.50932   0.44198   0.00000  Uiso   1.00
H453   H     0.56045   0.61773   0.47264   0.00000  Uiso   1.00
H454   H     0.62615   0.56158   0.52528   0.00000  Uiso   1.00
H455   H     0.49927   0.43631   0.55818   0.00000  Uiso   1.00
H456   H     0.50730   0.55174   0.55854   0.00000  Uiso   1.00
H457   H     0.87127   1.05680   0.96983   0.00000  Uiso   1.00
H458   H     0.99363   1.05446   0.94036   0.00000  Uiso   1.00
H459   H     0.02437   0.95721   0.93840   0.00000  Uiso   1.00
H460   H     0.13805   0.94066   0.96982   0.00000  Uiso   1.00
H461   H     0.05857   0.87837   1.02894   0.00000  Uiso   1.00
H462   H     0.93110   0.99161   1.06053   0.00000  Uiso   1.00
H463   H     0.06753   1.01117   1.06242   0.00000  Uiso   1.00
H464   H     0.92259   1.16344   1.04906   0.00000  Uiso   1.00
loop_
_geom_bond_atom_site_label_1
_geom_bond_atom_site_label_2
_geom_bond_distance
_geom_bond_site_symmetry_2
_ccdc_geom_bond_type
Al1    O369    1.950   .     S
Al1    O371    1.945   .     S
Al1    O372    1.800   .     S
Al1    O373    1.805   .     S
Al1    O380    1.982   .     S
Al1    O414    1.962   .     S
Al2    O370    1.982   .     S
Al2    O379    1.950   .     S
Al2    O381    1.945   .     S
Al2    O382    1.800   .     S
Al2    O383    1.805   .     S
Al2    O424    1.962   .     S
Al3    O389    1.950   .     S
Al3    O391    1.945   .     S
Al3    O392    1.800   .     S
Al3    O393    1.805   .     S
Al3    O400    1.982   .     S
Al3    O444    1.961   .     S
Al4    O390    1.982   .     S
Al4    O399    1.950   .     S
Al4    O401    1.945   .     S
Al4    O402    1.800   .     S
Al4    O403    1.805   .     S
Al4    O434    1.962   .     S
Al5    O374    1.962   .     S
Al5    O409    1.950   .     S
Al5    O411    1.945   .     S
Al5    O412    1.800   .     S
Al5    O413    1.805   .     S
Al5    O420    1.982   .     S
Al6    O384    1.962   .     S
Al6    O410    1.982   .     S
Al6    O419    1.950   .     S
Al6    O421    1.945   .     S
Al6    O422    1.800   .     S
Al6    O423    1.805   .     S
Al7    O404    1.962   .     S
Al7    O429    1.950   .     S
Al7    O431    1.946   .     S
Al7    O432    1.800   .     S
Al7    O433    1.805   .     S
Al7    O440    1.982   .     S
Al8    O394    1.962   .     S
Al8    O430    1.982   .     S
Al8    O439    1.950   .     S
Al8    O441    1.945   .     S
Al8    O442    1.800   .     S
Al8    O443    1.804   .     S
Al9    O373    1.805   .     S
Al9    O376    1.943   .     S
Al9    O378    1.965   .     S
Al9    O443    1.806   1_554 S
Al9    O446    1.942   1_554 S
Al9    O448    1.965   1_554 S
Al10   O383    1.805   .     S
Al10   O386    1.943   .     S
Al10   O388    1.964   .     S
Al10   O433    1.806   1_554 S
Al10   O436    1.942   1_554 S
Al10   O438    1.965   1_554 S
Al11   O393    1.806   .     S
Al11   O396    1.943   .     S
Al11   O398    1.965   .     S
Al11   O423    1.805   .     S
Al11   O426    1.943   .     S
Al11   O428    1.965   .     S
Al12   O403    1.806   .     S
Al12   O406    1.943   .     S
Al12   O408    1.965   .     S
Al12   O413    1.806   .     S
Al12   O416    1.942   .     S
Al12   O418    1.965   .     S
Al13   O372    1.801   1_455 S
Al13   O377    1.929   1_445 S
Al13   O382    1.801   1_545 S
Al13   O387    1.929   .     S
Al13   O415    1.975   1_455 S
Al13   O425    1.976   1_545 S
Al14   O392    1.800   .     S
Al14   O397    1.929   .     S
Al14   O402    1.800   .     S
Al14   O407    1.929   .     S
Al14   O435    1.975   .     S
Al14   O445    1.975   .     S
Al15   O375    1.976   .     S
Al15   O385    1.976   .     S
Al15   O412    1.800   .     S
Al15   O417    1.929   .     S
Al15   O422    1.800   .     S
Al15   O427    1.929   .     S
Al16   O395    1.975   1_455 S
Al16   O405    1.977   1_545 S
Al16   O432    1.800   1_545 S
Al16   O437    1.929   1_445 S
Al16   O442    1.800   1_455 S
Al16   O447    1.929   .     S
H17    C149    1.088   .     S
H18    C152    1.088   .     S
H19    C153    1.087   .     S
H20    C154    1.087   .     S
H21    C155    1.088   .     S
H22    C156    1.088   .     S
H23    C157    1.088   .     S
H24    C158    1.087   .     S
H25    C159    1.088   .     S
H26    C160    1.088   .     S
H27    C165    1.088   1_455 S
H28    C166    1.088   .     S
H29    C167    1.088   .     S
H30    C168    1.088   .     S
H31    C169    1.104   .     S
H32    C172    1.089   .     S
H33    C177    1.088   .     S
H34    C180    1.088   .     S
H35    C181    1.087   .     S
H36    C182    1.087   .     S
H37    C183    1.088   .     S
H38    C184    1.088   .     S
H39    C185    1.088   .     S
H40    C186    1.087   .     S
H41    C187    1.088   .     S
H42    C188    1.088   .     S
H43    C193    1.088   1_655 S
H44    C194    1.088   .     S
H45    C195    1.088   .     S
H46    C196    1.088   .     S
H47    C197    1.104   .     S
H48    C200    1.089   .     S
H49    C205    1.088   .     S
H50    C208    1.088   1_455 S
H51    C209    1.087   .     S
H52    C210    1.087   .     S
H53    C211    1.088   .     S
H54    C212    1.088   .     S
H55    C213    1.088   .     S
H56    C214    1.087   .     S
H57    C215    1.088   1_455 S
H58    C216    1.088   .     S
H59    C221    1.088   .     S
H60    C222    1.088   .     S
H61    C223    1.088   .     S
H62    C224    1.088   .     S
H63    C225    1.104   .     S
H64    C228    1.088   .     S
H65    C233    1.088   .     S
H66    C236    1.088   1_655 S
H67    C237    1.087   .     S
H68    C238    1.087   .     S
H69    C239    1.088   .     S
H70    C240    1.088   .     S
H71    C241    1.088   .     S
H72    C242    1.087   .     S
H73    C243    1.088   1_655 S
H74    C244    1.088   .     S
H75    C249    1.088   .     S
H76    C250    1.088   .     S
H77    C251    1.088   .     S
H78    C252    1.088   .     S
H79    C253    1.104   .     S
H80    C256    1.089   .     S
H81    C261    1.088   .     S
H82    C264    1.088   1_565 S
H83    C265    1.087   .     S
H84    C266    1.087   .     S
H85    C267    1.088   .     S
H86    C268    1.088   .     S
H87    C269    1.088   .     S
H88    C270    1.087   .     S
H89    C271    1.088   1_565 S
H90    C272    1.088   .     S
H91    C277    1.088   .     S
H92    C278    1.088   .     S
H93    C279    1.088   .     S
H94    C280    1.088   .     S
H95    C281    1.104   .     S
H96    C284    1.089   .     S
H97    C289    1.088   .     S
H98    C292    1.088   1_545 S
H99    C293    1.087   .     S
H100   C294    1.087   .     S
H101   C295    1.088   .     S
H102   C296    1.088   .     S
H103   C297    1.088   .     S
H104   C298    1.087   .     S
H105   C299    1.088   1_545 S
H106   C300    1.088   .     S
H107   C305    1.088   .     S
H108   C306    1.088   .     S
H109   C307    1.088   .     S
H110   C308    1.088   .     S
H111   C309    1.104   .     S
H112   C312    1.088   .     S
H113   C317    1.088   .     S
H114   C320    1.088   .     S
H115   C321    1.087   .     S
H116   C322    1.088   .     S
H117   C323    1.088   .     S
H118   C324    1.088   .     S
H119   C325    1.088   .     S
H120   C326    1.087   .     S
H121   C327    1.088   .     S
H122   C328    1.088   .     S
H123   C333    1.088   1_545 S
H124   C334    1.088   .     S
H125   C335    1.088   .     S
H126   C336    1.087   .     S
H127   C337    1.104   .     S
H128   C340    1.089   .     S
H129   C345    1.088   .     S
H130   C348    1.088   .     S
H131   C349    1.087   .     S
H132   C350    1.088   .     S
H133   C351    1.088   .     S
H134   C352    1.088   .     S
H135   C353    1.088   .     S
H136   C354    1.087   .     S
H137   C355    1.088   .     S
H138   C356    1.088   .     S
H139   C361    1.088   1_565 S
H140   C362    1.088   .     S
H141   C363    1.088   .     S
H142   C364    1.088   .     S
H143   C365    1.104   .     S
H144   C368    1.088   .     S
C145   C146    1.495   1_655 S
C145   C158    1.406   .     S
C145   C165    1.405   .     D
C146   C145    1.495   1_455 S
C146   O370    1.277   .     D
C146   O377    1.273   1_455 S
C147   C149    1.404   .     D
C147   C151    1.492   .     S
C147   C153    1.404   .     S
C148   C150    1.497   .     S
C148   O374    1.274   .     D
C148   O375    1.270   .     S
C149   C157    1.393   .     S
C150   C152    1.403   .     D
C150   C155    1.404   .     S
C151   O369    1.276   .     D
C151   O376    1.272   .     S
C152   C159    1.391   .     S
C153   C154    1.390   .     D
C154   C163    1.409   .     S
C155   C166    1.394   .     D
C156   C162    1.406   .     S
C156   C164    1.403   .     D
C157   C163    1.409   .     D
C158   C160    1.390   .     D
C159   C161    1.409   .     D
C160   C171    1.411   .     S
C161   C166    1.408   .     S
C161   C170    1.479   .     S
C162   C167    1.408   .     D
C162   C171    1.477   .     S
C163   C164    1.477   .     S
C164   C168    1.405   .     S
C165   H27     1.088   1_655 S
C165   C172    1.393   .     S
C167   C170    1.403   .     S
C168   C170    1.405   .     D
C169   O371    1.267   .     S
C169   O378    1.268   .     D
C171   C172    1.411   .     D
C173   C174    1.495   .     S
C173   C186    1.406   .     D
C173   C193    1.405   .     S
C174   O380    1.277   1_455 S
C174   O387    1.273   .     D
C175   C177    1.404   .     S
C175   C179    1.492   .     S
C175   C181    1.404   .     D
C176   C178    1.497   .     S
C176   O384    1.274   .     D
C176   O385    1.270   .     S
C177   C185    1.393   .     D
C178   C180    1.403   .     D
C178   C183    1.404   .     S
C179   O379    1.276   .     D
C179   O386    1.272   .     S
C180   C187    1.392   .     S
C181   C182    1.390   .     S
C182   C191    1.409   .     D
C183   C194    1.394   .     D
C184   C190    1.406   .     S
C184   C192    1.403   .     D
C185   C191    1.409   .     S
C186   C188    1.390   .     S
C187   C189    1.409   .     D
C188   C199    1.411   .     D
C189   C194    1.408   .     S
C189   C198    1.479   .     S
C190   C195    1.408   .     D
C190   C199    1.477   .     S
C191   C192    1.477   .     S
C192   C196    1.405   .     S
C193   H43     1.088   1_455 S
C193   C200    1.394   .     D
C195   C198    1.403   .     S
C196   C198    1.405   .     D
C197   O381    1.267   .     S
C197   O388    1.268   .     D
C199   C200    1.411   .     S
C201   C202    1.495   .     S
C201   C214    1.407   .     D
C201   C221    1.404   .     S
C202   O390    1.277   .     S
C202   O397    1.273   .     D
C203   C205    1.404   .     D
C203   C207    1.492   .     S
C203   C209    1.404   .     S
C204   C206    1.497   .     S
C204   O394    1.274   .     D
C204   O395    1.270   .     S
C205   C213    1.393   .     S
C206   C208    1.403   .     D
C206   C211    1.404   .     S
C207   O389    1.276   .     D
C207   O396    1.272   .     S
C208   H50     1.088   1_655 S
C208   C215    1.391   .     S
C209   C210    1.390   .     D
C210   C219    1.409   .     S
C211   C222    1.393   .     D
C212   C218    1.406   .     S
C212   C220    1.403   1_655 D
C213   C219    1.409   .     D
C214   C216    1.390   .     S
C215   H57     1.088   1_655 S
C215   C217    1.409   .     D
C216   C227    1.411   .     D
C217   C222    1.409   .     S
C217   C226    1.479   .     S
C218   C223    1.407   .     D
C218   C227    1.477   .     S
C219   C220    1.477   .     S
C220   C212    1.403   1_455 D
C220   C224    1.405   .     S
C221   C228    1.394   .     D
C223   C226    1.403   .     S
C224   C226    1.405   1_455 D
C225   O391    1.267   .     S
C225   O398    1.268   .     D
C226   C224    1.405   1_655 D
C227   C228    1.411   .     S
C229   C230    1.496   .     S
C229   C242    1.406   .     D
C229   C249    1.405   .     S
C230   O400    1.277   .     S
C230   O407    1.273   .     D
C231   C233    1.404   .     D
C231   C235    1.491   .     S
C231   C237    1.404   .     S
C232   C234    1.497   .     S
C232   O404    1.274   .     D
C232   O405    1.270   .     S
C233   C241    1.393   .     S
C234   C236    1.403   .     D
C234   C239    1.404   .     S
C235   O399    1.276   .     D
C235   O406    1.272   .     S
C236   H66     1.088   1_455 S
C236   C243    1.391   .     S
C237   C238    1.390   .     D
C238   C247    1.409   .     S
C239   C250    1.393   .     D
C240   C246    1.406   .     S
C240   C248    1.403   1_455 D
C241   C247    1.409   .     D
C242   C244    1.390   .     S
C243   H73     1.088   1_455 S
C243   C245    1.409   .     D
C244   C255    1.411   .     D
C245   C250    1.409   .     S
C245   C254    1.479   .     S
C246   C251    1.408   .     D
C246   C255    1.477   .     S
C247   C248    1.477   .     S
C248   C240    1.403   1_655 D
C248   C252    1.405   .     S
C249   C256    1.394   .     D
C251   C254    1.403   .     S
C252   C254    1.405   1_655 D
C253   O401    1.267   .     S
C253   O408    1.268   .     D
C254   C252    1.405   1_455 D
C255   C256    1.411   .     S
C257   C258    1.495   .     S
C257   C270    1.407   .     D
C257   C277    1.405   .     S
C258   O410    1.277   .     S
C258   O417    1.273   .     D
C259   C261    1.404   .     D
C259   C263    1.492   .     S
C259   C265    1.404   .     S
C260   C262    1.497   .     S
C260   O414    1.274   .     D
C260   O415    1.270   .     S
C261   C269    1.393   .     S
C262   C264    1.404   .     D
C262   C267    1.404   .     S
C263   O409    1.276   .     D
C263   O416    1.272   .     S
C264   H82     1.088   1_545 S
C264   C271    1.391   .     S
C265   C266    1.390   .     D
C266   C275    1.409   .     S
C267   C278    1.394   .     D
C268   C274    1.406   .     S
C268   C276    1.403   1_545 D
C269   C275    1.409   .     D
C270   C272    1.390   .     S
C271   H89     1.088   1_545 S
C271   C273    1.409   .     D
C272   C283    1.411   .     D
C273   C278    1.408   .     S
C273   C282    1.480   .     S
C274   C279    1.408   .     D
C274   C283    1.477   .     S
C275   C276    1.477   .     S
C276   C268    1.403   1_565 D
C276   C280    1.405   .     S
C277   C284    1.394   .     D
C279   C282    1.403   .     S
C280   C282    1.405   1_565 D
C281   O411    1.267   .     S
C281   O418    1.268   .     D
C282   C280    1.405   1_545 D
C283   C284    1.411   .     S
C285   C286    1.496   .     S
C285   C298    1.406   .     D
C285   C305    1.405   .     S
C286   O420    1.277   .     S
C286   O427    1.272   .     D
C287   C289    1.404   .     S
C287   C291    1.492   .     S
C287   C293    1.404   .     D
C288   C290    1.497   .     S
C288   O424    1.274   .     D
C288   O425    1.270   .     S
C289   C297    1.393   .     D
C290   C292    1.403   .     D
C290   C295    1.404   .     S
C291   O419    1.276   .     D
C291   O426    1.272   .     S
C292   H98     1.088   1_565 S
C292   C299    1.391   .     S
C293   C294    1.390   .     S
C294   C303    1.409   .     D
C295   C306    1.394   .     D
C296   C302    1.406   .     S
C296   C304    1.403   1_565 D
C297   C303    1.409   .     S
C298   C300    1.390   .     S
C299   H105    1.088   1_565 S
C299   C301    1.409   .     D
C300   C311    1.411   .     D
C301   C306    1.408   .     S
C301   C310    1.479   .     S
C302   C307    1.408   .     D
C302   C311    1.477   .     S
C303   C304    1.477   .     S
C304   C296    1.403   1_545 D
C304   C308    1.405   .     S
C305   C312    1.393   .     D
C307   C310    1.403   .     S
C308   C310    1.404   1_545 D
C309   O421    1.267   .     S
C309   O428    1.268   .     D
C310   C308    1.404   1_565 D
C311   C312    1.411   .     S
C313   C314    1.495   1_565 S
C313   C326    1.406   .     S
C313   C333    1.405   .     D
C314   C313    1.495   1_545 S
C314   O430    1.277   .     D
C314   O437    1.272   1_545 S
C315   C317    1.404   .     S
C315   C319    1.492   .     S
C315   C321    1.404   .     D
C316   C318    1.498   .     S
C316   O434    1.274   .     D
C316   O435    1.270   .     S
C317   C325    1.393   .     D
C318   C320    1.403   .     D
C318   C323    1.404   .     S
C319   O429    1.277   .     D
C319   O436    1.272   .     S
C320   C327    1.391   .     S
C321   C322    1.390   .     S
C322   C331    1.409   .     D
C323   C334    1.393   .     D
C324   C330    1.406   .     S
C324   C332    1.403   .     D
C325   C331    1.409   .     S
C326   C328    1.390   .     D
C327   C329    1.409   .     D
C328   C339    1.411   .     S
C329   C334    1.409   .     S
C329   C338    1.479   .     S
C330   C335    1.407   .     D
C330   C339    1.477   .     S
C331   C332    1.477   .     S
C332   C336    1.405   .     S
C333   H123    1.088   1_565 S
C333   C340    1.393   .     S
C335   C338    1.403   .     S
C336   C338    1.405   .     D
C337   O431    1.267   .     S
C337   O438    1.268   .     D
C339   C340    1.411   .     D
C341   C342    1.495   .     S
C341   C354    1.407   .     D
C341   C361    1.405   .     S
C342   O440    1.277   1_545 S
C342   O447    1.272   .     D
C343   C345    1.404   .     D
C343   C347    1.492   .     S
C343   C349    1.404   .     S
C344   C346    1.497   .     S
C344   O444    1.274   .     D
C344   O445    1.270   .     S
C345   C353    1.393   .     S
C346   C348    1.404   .     D
C346   C351    1.404   .     S
C347   O439    1.276   .     D
C347   O446    1.272   .     S
C348   C355    1.391   .     S
C349   C350    1.390   .     D
C350   C359    1.409   .     S
C351   C362    1.394   .     D
C352   C358    1.406   .     S
C352   C360    1.403   .     D
C353   C359    1.409   .     D
C354   C356    1.390   .     S
C355   C357    1.409   .     D
C356   C367    1.411   .     D
C357   C362    1.409   .     S
C357   C366    1.479   .     S
C358   C363    1.407   .     D
C358   C367    1.477   .     S
C359   C360    1.477   .     S
C360   C364    1.405   .     S
C361   H139    1.088   1_545 S
C361   C368    1.394   .     D
C363   C366    1.403   .     S
C364   C366    1.405   .     D
C365   O441    1.267   .     S
C365   O448    1.268   .     D
C367   C368    1.411   .     S
O372   Al13    1.801   1_655 S
O372   H462    0.970   1_544 S
O373   H464    0.996   1_544 S
O377   C146    1.273   1_655 S
O377   Al13    1.929   1_665 S
O380   C174    1.277   1_655 S
O382   Al13    1.801   1_565 S
O382   H463    0.947   1_554 S
O383   H461    0.963   1_554 S
O392   H455    0.967   .     S
O393   H449    0.984   .     S
O395   Al16    1.975   1_655 S
O402   H456    0.965   .     S
O403   H454    0.939   .     S
O405   Al16    1.977   1_565 S
O412   H452    0.969   .     S
O413   H453    0.959   .     S
O415   Al13    1.975   1_655 S
O422   H451    0.948   .     S
O423   H450    0.937   .     S
O425   Al13    1.976   1_565 S
O432   Al16    1.800   1_565 S
O432   H459    0.910   .     S
O433   Al10    1.806   1_556 S
O433   H460    0.938   .     S
O436   Al10    1.942   1_556 S
O437   C314    1.272   1_565 S
O437   Al16    1.929   1_665 S
O438   Al10    1.965   1_556 S
O440   C342    1.277   1_565 S
O442   Al16    1.800   1_655 S
O442   H458    0.917   1_545 S
O443   Al9     1.806   1_556 S
O443   H457    0.973   1_545 S
O446   Al9     1.942   1_556 S
O448   Al9     1.965   1_556 S
H457   O443    0.973   1_565 S
H458   O442    0.917   1_565 S
H461   O383    0.963   1_556 S
H462   O372    0.970   1_566 S
H463   O382    0.947   1_556 S
H464   O373    0.996   1_566 S
