data_image0
_chemical_formula_structural       O2C3HO2C3HO2C3HO2C3HO2C3HO2C3HO2C3HO2C3HO2C3HO2C3HO2C3HO2C3HO2C3HO2C3HO2C3HO2C3HIn8OHOHOHOHOHOHOHOHC2HC2HC2HC2HC2HC2HC2HC2HOCO
_chemical_formula_sum              "O42 C65 H32 In8"
_cell_length_a       15.5097
_cell_length_b       15.5097
_cell_length_c       12.3197
_cell_angle_alpha    90
_cell_angle_beta     90
_cell_angle_gamma    90

_space_group_name_H-M_alt    "P 1"
_space_group_IT_number       1

loop_
  _space_group_symop_operation_xyz
  'x, y, z'

loop_
  _atom_site_type_symbol
  _atom_site_label
  _atom_site_symmetry_multiplicity
  _atom_site_fract_x
  _atom_site_fract_y
  _atom_site_fract_z
  _atom_site_occupancy
  O   O1        1.0  0.61266  0.38321  0.61447  1.0000
  O   O2        1.0  0.59174  0.29299  0.75728  1.0000
  C   C1        1.0  0.58679  0.36123  0.70627  1.0000
  C   C2        1.0  0.53618  0.43098  0.76877  1.0000
  C   C3        1.0  0.52791  0.42723  0.88193  1.0000
  H   H1        1.0  0.54118  0.37258  0.91603  1.0000
  O   O3        1.0  0.11266  0.88321  0.11447  1.0000
  O   O4        1.0  0.09174  0.79299  0.25728  1.0000
  C   C4        1.0  0.08679  0.86123  0.20627  1.0000
  C   C5        1.0  0.03618  0.93098  0.26877  1.0000
  C   C6        1.0  0.02791  0.92723  0.38193  1.0000
  H   H2        1.0  0.04118  0.87258  0.41603  1.0000
  O   O5        1.0  0.88734  0.11679  0.11447  1.0000
  O   O6        1.0  0.90826  0.20701  0.25728  1.0000
  C   C7        1.0  0.91321  0.13877  0.20627  1.0000
  C   C8        1.0  0.96382  0.06902  0.26877  1.0000
  C   C9        1.0  0.97209  0.07277  0.38193  1.0000
  H   H3        1.0  0.95882  0.12742  0.41603  1.0000
  O   O7        1.0  0.38734  0.61679  0.61447  1.0000
  O   O8        1.0  0.40826  0.70701  0.75728  1.0000
  C   C10       1.0  0.41321  0.63877  0.70627  1.0000
  C   C11       1.0  0.46382  0.56902  0.76877  1.0000
  C   C12       1.0  0.47209  0.57277  0.88193  1.0000
  H   H4        1.0  0.45882  0.62742  0.91603  1.0000
  O   O9        1.0  0.61679  0.11266  0.86447  1.0000
  O   O10       1.0  0.70701  0.09174  0.00728  1.0000
  C   C13       1.0  0.63877  0.08679  0.95627  1.0000
  C   C14       1.0  0.56902  0.03618  0.01877  1.0000
  C   C15       1.0  0.57277  0.02791  0.13193  1.0000
  H   H5        1.0  0.62742  0.04118  0.16603  1.0000
  O   O11       1.0  0.11679  0.61266  0.36447  1.0000
  O   O12       1.0  0.20701  0.59174  0.50728  1.0000
  C   C16       1.0  0.13877  0.58679  0.45627  1.0000
  C   C17       1.0  0.06902  0.53618  0.51877  1.0000
  C   C18       1.0  0.07277  0.52791  0.63193  1.0000
  H   H6        1.0  0.12742  0.54118  0.66603  1.0000
  O   O13       1.0  0.88321  0.38734  0.36447  1.0000
  O   O14       1.0  0.79299  0.40826  0.50728  1.0000
  C   C19       1.0  0.86123  0.41321  0.45627  1.0000
  C   C20       1.0  0.93098  0.46382  0.51877  1.0000
  C   C21       1.0  0.92723  0.47209  0.63193  1.0000
  H   H7        1.0  0.87258  0.45882  0.66603  1.0000
  O   O15       1.0  0.38321  0.88734  0.86447  1.0000
  O   O16       1.0  0.29299  0.90826  0.00728  1.0000
  C   C22       1.0  0.36123  0.91321  0.95627  1.0000
  C   C23       1.0  0.43098  0.96382  0.01877  1.0000
  C   C24       1.0  0.42723  0.97209  0.13193  1.0000
  H   H8        1.0  0.37258  0.95882  0.16603  1.0000
  O   O17       1.0  0.88734  0.38321  0.13553  1.0000
  O   O18       1.0  0.90826  0.29299  0.99272  1.0000
  C   C25       1.0  0.91321  0.36123  0.04373  1.0000
  C   C26       1.0  0.96382  0.43098  0.98123  1.0000
  C   C27       1.0  0.97209  0.42723  0.86807  1.0000
  H   H9        1.0  0.95882  0.37258  0.83397  1.0000
  O   O19       1.0  0.38734  0.88321  0.63553  1.0000
  O   O20       1.0  0.40826  0.79299  0.49272  1.0000
  C   C28       1.0  0.41321  0.86123  0.54373  1.0000
  C   C29       1.0  0.46382  0.93098  0.48123  1.0000
  C   C30       1.0  0.47209  0.92723  0.36807  1.0000
  H   H10       1.0  0.45882  0.87258  0.33397  1.0000
  O   O21       1.0  0.61266  0.11679  0.63553  1.0000
  O   O22       1.0  0.59174  0.20701  0.49272  1.0000
  C   C31       1.0  0.58679  0.13877  0.54373  1.0000
  C   C32       1.0  0.53618  0.06902  0.48123  1.0000
  C   C33       1.0  0.52791  0.07277  0.36807  1.0000
  H   H11       1.0  0.54118  0.12742  0.33397  1.0000
  O   O23       1.0  0.11266  0.61679  0.13553  1.0000
  O   O24       1.0  0.09174  0.70701  0.99272  1.0000
  C   C34       1.0  0.08679  0.63877  0.04373  1.0000
  C   C35       1.0  0.03618  0.56902  0.98123  1.0000
  C   C36       1.0  0.02791  0.57277  0.86807  1.0000
  H   H12       1.0  0.04118  0.62742  0.83397  1.0000
  O   O25       1.0  0.88321  0.11266  0.88553  1.0000
  O   O26       1.0  0.79299  0.09174  0.74272  1.0000
  C   C37       1.0  0.86123  0.08679  0.79373  1.0000
  C   C38       1.0  0.93098  0.03618  0.73123  1.0000
  C   C39       1.0  0.92723  0.02791  0.61807  1.0000
  H   H13       1.0  0.87258  0.04118  0.58397  1.0000
  O   O27       1.0  0.38321  0.61266  0.38553  1.0000
  O   O28       1.0  0.29299  0.59174  0.24272  1.0000
  C   C40       1.0  0.36123  0.58679  0.29373  1.0000
  C   C41       1.0  0.43098  0.53618  0.23123  1.0000
  C   C42       1.0  0.42723  0.52791  0.11807  1.0000
  H   H14       1.0  0.37258  0.54118  0.08397  1.0000
  O   O29       1.0  0.61679  0.38734  0.38553  1.0000
  O   O30       1.0  0.70701  0.40826  0.24272  1.0000
  C   C43       1.0  0.63877  0.41321  0.29373  1.0000
  C   C44       1.0  0.56902  0.46382  0.23123  1.0000
  C   C45       1.0  0.57277  0.47209  0.11807  1.0000
  H   H15       1.0  0.62742  0.45882  0.08397  1.0000
  O   O31       1.0  0.11679  0.88734  0.88553  1.0000
  O   O32       1.0  0.20701  0.90826  0.74272  1.0000
  C   C46       1.0  0.13877  0.91321  0.79373  1.0000
  C   C47       1.0  0.06902  0.96382  0.73123  1.0000
  C   C48       1.0  0.07277  0.97209  0.61807  1.0000
  H   H16       1.0  0.12742  0.95882  0.58397  1.0000
  In  In1       1.0  0.68809  0.31191  0.50000  1.0000
  In  In2       1.0  0.18809  0.81191  0.00000  1.0000
  In  In3       1.0  0.81191  0.18809  0.00000  1.0000
  In  In4       1.0  0.31191  0.68809  0.50000  1.0000
  In  In5       1.0  0.68809  0.18809  0.75000  1.0000
  In  In6       1.0  0.18809  0.68809  0.25000  1.0000
  In  In7       1.0  0.81191  0.31191  0.25000  1.0000
  In  In8       1.0  0.31191  0.81191  0.75000  1.0000
  O   O33       1.0  0.75815  0.25000  0.62500  1.0000
  H   H17       1.0  0.81264  0.25000  0.62500  1.0000
  O   O34       1.0  0.25815  0.75000  0.12500  1.0000
  H   H18       1.0  0.31264  0.75000  0.12500  1.0000
  O   O35       1.0  0.74185  0.25000  0.12500  1.0000
  H   H19       1.0  0.68736  0.25000  0.12500  1.0000
  O   O36       1.0  0.24185  0.75000  0.62500  1.0000
  H   H20       1.0  0.18736  0.75000  0.62500  1.0000
  O   O37       1.0  0.75000  0.25815  0.87500  1.0000
  H   H21       1.0  0.75000  0.31264  0.87500  1.0000
  O   O38       1.0  0.25000  0.75815  0.37500  1.0000
  H   H22       1.0  0.25000  0.81264  0.37500  1.0000
  O   O39       1.0  0.75000  0.24185  0.37500  1.0000
  H   H23       1.0  0.75000  0.18736  0.37500  1.0000
  O   O40       1.0  0.25000  0.74185  0.87500  1.0000
  H   H24       1.0  0.25000  0.68736  0.87500  1.0000
  C   C49       1.0  0.50000  0.50000  0.71164  1.0000
  C   C50       1.0  0.50000  0.50000  0.93959  1.0000
  H   H25       1.0  0.50000  0.50000  0.63078  1.0000
  C   C51       1.0  0.00000  0.00000  0.21164  1.0000
  C   C52       1.0  0.00000  0.00000  0.43959  1.0000
  H   H26       1.0  0.00000  0.00000  0.13078  1.0000
  C   C53       1.0  0.50000  0.00000  0.96164  1.0000
  C   C54       1.0  0.50000  0.00000  0.18959  1.0000
  H   H27       1.0  0.50000  0.00000  0.88078  1.0000
  C   C55       1.0  0.00000  0.50000  0.46164  1.0000
  C   C56       1.0  0.00000  0.50000  0.68959  1.0000
  H   H28       1.0  0.00000  0.50000  0.38078  1.0000
  C   C57       1.0  0.00000  0.50000  0.03836  1.0000
  C   C58       1.0  0.00000  0.50000  0.81041  1.0000
  H   H29       1.0  0.00000  0.50000  0.11922  1.0000
  C   C59       1.0  0.50000  0.00000  0.53836  1.0000
  C   C60       1.0  0.50000  0.00000  0.31041  1.0000
  H   H30       1.0  0.50000  0.00000  0.61922  1.0000
  C   C61       1.0  0.00000  0.00000  0.78836  1.0000
  C   C62       1.0  0.00000  0.00000  0.56041  1.0000
  H   H31       1.0  0.00000  0.00000  0.86922  1.0000
  C   C63       1.0  0.50000  0.50000  0.28836  1.0000
  C   C64       1.0  0.50000  0.50000  0.06041  1.0000
  H   H32       1.0  0.50000  0.50000  0.36922  1.0000
  O   O41       1.0  0.20763  0.07716  0.17264  1.0000
  C   C65       1.0  0.22366  0.02817  0.24085  1.0000
  O   O42       1.0  0.23970  0.97917  0.30907  1.0000
