data_crystal

_audit_creation_method 'AiiDA-DDEC plugin'

_cell_length_a         9.98724
_cell_length_b        10.54172
_cell_length_c        11.26559

_cell_angle_alpha     96.66186
_cell_angle_beta     124.68409
_cell_angle_gamma     102.44625

_symmetry_space_group_name_Hall 'P 1'
_symmetry_space_group_name_H-M  'P 1'

loop_
_symmetry_equiv_pos_as_xyz
 'x,y,z'

loop_
_atom_site_label
_atom_site_type_symbol
_atom_site_fract_x
_atom_site_fract_y
_atom_site_fract_z
_atom_site_charge
Sr         Sr      0.33664   0.10757   0.46625   1.47487
Sr         Sr      0.66332   0.89245   0.53375   1.47489
Sr         Sr      0.49995   0.50000   0.49999   1.53790
H          H       0.60957   0.29072   0.76283   0.37454
H          H       0.90660   0.16430   0.52174   0.11739
H          H       0.90001   0.52869   0.73519   0.11808
H          H       0.29231   0.54902   0.67384   0.12341
H          H       0.36482   0.00835   0.75689   0.11469
H          H       0.44790   0.35862   0.06213   0.13521
H          H       0.19390   0.95576   0.02881   0.12661
H          H       0.39042   0.70930   0.23717   0.37449
H          H       0.09336   0.83573   0.47831   0.11755
H          H       0.09992   0.47134   0.26481   0.11799
H          H       0.70766   0.45100   0.32621   0.12369
H          H       0.63519   0.99166   0.24313   0.11463
H          H       0.55210   0.64138   0.93789   0.13507
H          H       0.80610   0.04425   0.97120   0.12673
C          C       0.17816   0.27575   0.53399   0.59213
C          C       0.10729   0.34964   0.59473  -0.02818
C          C       0.96041   0.27318   0.57685  -0.09388
C          C       0.88312   0.33729   0.62474  -0.06306
C          C       0.95693   0.47796   0.69502  -0.11958
C          C       0.10415   0.55595   0.71304   0.13678
C          C       0.17918   0.49038   0.66197  -0.09960
C          C       0.71965   0.25902   0.59585   0.62423
C          C       0.16625   0.69901   0.77381  -0.09261
C          C       0.20801   0.82197   0.82014  -0.08200
C          C       0.26564   0.96489   0.88007   0.12496
C          C       0.34798   0.05236   0.83749  -0.11190
C          C       0.41307   0.19329   0.90288  -0.05391
C          C       0.39710   0.24890   0.01184  -0.08816
C          C       0.32080   0.16246   0.05857  -0.04206
C          C       0.25257   0.02152   0.99106  -0.11798
C          C       0.51399   0.28703   0.87076   0.57274
C          C       0.32649   0.21758   0.19142   0.61358
C          C       0.82184   0.72426   0.46609   0.59244
C          C       0.89269   0.65036   0.40532  -0.02777
C          C       0.03955   0.72684   0.42319  -0.09395
C          C       0.11682   0.66273   0.37527  -0.06300
C          C       0.04301   0.52206   0.30498  -0.11959
C          C       0.89581   0.44406   0.28698   0.13709
C          C       0.82079   0.50962   0.33807  -0.10079
C          C       0.28029   0.74100   0.40413   0.62408
C          C       0.83372   0.30098   0.22621  -0.09223
C          C       0.79201   0.17808   0.17989  -0.08213
C          C       0.73438   0.03514   0.11995   0.12484
C          C       0.65204   0.94766   0.16253  -0.11178
C          C       0.58694   0.80673   0.09714  -0.05420
C          C       0.60290   0.75112   0.98818  -0.08816
C          C       0.67921   0.83756   0.94145  -0.04202
C          C       0.74744   0.97850   0.00896  -0.11796
C          C       0.48602   0.71298   0.12925   0.57313
C          C       0.67351   0.78243   0.80859   0.61350
O          O       0.28719   0.34274   0.51680  -0.71796
O          O       0.12764   0.14693   0.50311  -0.61474
O          O       0.63578   0.32458   0.61623  -0.68707
O          O       0.66060   0.12892   0.54817  -0.68408
O          O       0.57426   0.41055   0.92174  -0.44331
O          O       0.54081   0.21976   0.77676  -0.55215
O          O       0.25670   0.13123   0.22871  -0.67557
O          O       0.40582   0.34381   0.26208  -0.65034
O          O       0.71274   0.65726   0.48320  -0.71837
O          O       0.87244   0.85309   0.49703  -0.61454
O          O       0.36413   0.67543   0.38374  -0.68723
O          O       0.33933   0.87111   0.45182  -0.68370
O          O       0.42573   0.58947   0.07825  -0.44350
O          O       0.45921   0.78026   0.22326  -0.55224
O          O       0.74330   0.86878   0.77130  -0.67530
O          O       0.59415   0.65619   0.73793  -0.65062

